<?xml version="1.0" encoding="UTF-8"?>

<!-- generated on 2026-07-10T23:47:20.936365+09:00 by Eclipse SUMO netedit 1.27.1
<neteditConfiguration xmlns:xsi="http://www.w3.org/2001/XMLSchema-instance" xsi:noNamespaceSchemaLocation="http://sumo.dlr.de/xsd/neteditConfiguration.xsd">

    <input>
        <sumo-net-file value="/media/tae/Tae_inHDD/My_project/Ubuntu/Proj_Autonomous_driving_of_intersection_situations_using_Ubuntu_ROS2_SUMO_Rviz2/self_study_sumo/tuto_sumo_xml_cfg/05_autobahn/tuto_autobahn.net.xml"/>
    </input>

    <output>
        <output-file value="/media/tae/Tae_inHDD/My_project/Ubuntu/Proj_Autonomous_driving_of_intersection_situations_using_Ubuntu_ROS2_SUMO_Rviz2/self_study_sumo/tuto_sumo_xml_cfg/05_autobahn/tuto_autobahn.net.xml"/>
    </output>

    <processing>
        <offset.disable-normalization value="true"/>
    </processing>

    <junctions>
        <no-turnarounds value="true"/>
    </junctions>

    <netedit>
        <new-network value="false"/>
    </netedit>

</neteditConfiguration>
-->

<net version="1.20" junctionCornerDetail="5" limitTurnSpeed="5.50" xmlns:xsi="http://www.w3.org/2001/XMLSchema-instance" xsi:noNamespaceSchemaLocation="http://sumo.dlr.de/xsd/net_file.xsd">

    <location netOffset="0.00,0.00" convBoundary="0.00,0.00,1200.00,0.00" origBoundary="10000000000.00,10000000000.00,-10000000000.00,-10000000000.00" projParameter="!"/>

    <edge id=":J2_0" function="internal">
        <lane id=":J2_0_0" index="0" speed="36.11" length="0.10" shape="100.00,-11.20 100.00,-11.20"/>
        <lane id=":J2_0_1" index="1" speed="36.11" length="0.10" shape="100.00,-8.00 100.00,-8.00"/>
        <lane id=":J2_0_2" index="2" speed="36.11" length="0.10" shape="100.00,-4.80 100.00,-4.80"/>
        <lane id=":J2_0_3" index="3" speed="36.11" length="0.10" shape="100.00,-1.60 100.00,-1.60"/>
    </edge>
    <edge id=":J3_0" function="internal">
        <lane id=":J3_0_0" index="0" speed="36.11" length="0.10" shape="1100.00,-11.20 1100.00,-11.20"/>
        <lane id=":J3_0_1" index="1" speed="36.11" length="0.10" shape="1100.00,-8.00 1100.00,-8.00"/>
        <lane id=":J3_0_2" index="2" speed="36.11" length="0.10" shape="1100.00,-4.80 1100.00,-4.80"/>
        <lane id=":J3_0_3" index="3" speed="36.11" length="0.10" shape="1100.00,-1.60 1100.00,-1.60"/>
    </edge>

    <edge id="E_entry" from="J0" to="J2" priority="-1">
        <lane id="E_entry_0" index="0" speed="36.11" length="100.00" shape="0.00,-11.20 100.00,-11.20"/>
        <lane id="E_entry_1" index="1" speed="36.11" length="100.00" shape="0.00,-8.00 100.00,-8.00"/>
        <lane id="E_entry_2" index="2" speed="36.11" length="100.00" shape="0.00,-4.80 100.00,-4.80"/>
        <lane id="E_entry_3" index="3" speed="36.11" length="100.00" shape="0.00,-1.60 100.00,-1.60"/>
    </edge>
    <edge id="E_exit" from="J3" to="J1" priority="-1">
        <lane id="E_exit_0" index="0" speed="36.11" length="100.00" shape="1100.00,-11.20 1200.00,-11.20"/>
        <lane id="E_exit_1" index="1" speed="36.11" length="100.00" shape="1100.00,-8.00 1200.00,-8.00"/>
        <lane id="E_exit_2" index="2" speed="36.11" length="100.00" shape="1100.00,-4.80 1200.00,-4.80"/>
        <lane id="E_exit_3" index="3" speed="36.11" length="100.00" shape="1100.00,-1.60 1200.00,-1.60"/>
    </edge>
    <edge id="E_highway" from="J2" to="J3" priority="-1">
        <lane id="E_highway_0" index="0" speed="36.11" length="1000.00" shape="100.00,-11.20 1100.00,-11.20"/>
        <lane id="E_highway_1" index="1" speed="36.11" length="1000.00" shape="100.00,-8.00 1100.00,-8.00"/>
        <lane id="E_highway_2" index="2" speed="36.11" length="1000.00" shape="100.00,-4.80 1100.00,-4.80"/>
        <lane id="E_highway_3" index="3" speed="36.11" length="1000.00" shape="100.00,-1.60 1100.00,-1.60"/>
    </edge>

    <junction id="J0" type="dead_end" x="0.00" y="0.00" incLanes="" intLanes="" shape="0.00,0.00 0.00,-12.80"/>
    <junction id="J1" type="dead_end" x="1200.00" y="0.00" incLanes="E_exit_0 E_exit_1 E_exit_2 E_exit_3" intLanes="" shape="1200.00,-12.80 1200.00,0.00"/>
    <junction id="J2" type="priority" x="100.00" y="0.00" incLanes="E_entry_0 E_entry_1 E_entry_2 E_entry_3" intLanes=":J2_0_0 :J2_0_1 :J2_0_2 :J2_0_3" shape="100.00,0.00 100.00,-12.80 100.00,0.00">
        <request index="0" response="0000" foes="0000" cont="0"/>
        <request index="1" response="0000" foes="0000" cont="0"/>
        <request index="2" response="0000" foes="0000" cont="0"/>
        <request index="3" response="0000" foes="0000" cont="0"/>
    </junction>
    <junction id="J3" type="priority" x="1100.00" y="0.00" incLanes="E_highway_0 E_highway_1 E_highway_2 E_highway_3" intLanes=":J3_0_0 :J3_0_1 :J3_0_2 :J3_0_3" shape="1100.00,0.00 1100.00,-12.80 1100.00,0.00">
        <request index="0" response="0000" foes="0000" cont="0"/>
        <request index="1" response="0000" foes="0000" cont="0"/>
        <request index="2" response="0000" foes="0000" cont="0"/>
        <request index="3" response="0000" foes="0000" cont="0"/>
    </junction>

    <connection from="E_entry" to="E_highway" fromLane="0" toLane="0" via=":J2_0_0" dir="s" state="M"/>
    <connection from="E_entry" to="E_highway" fromLane="1" toLane="1" via=":J2_0_1" dir="s" state="M"/>
    <connection from="E_entry" to="E_highway" fromLane="2" toLane="2" via=":J2_0_2" dir="s" state="M"/>
    <connection from="E_entry" to="E_highway" fromLane="3" toLane="3" via=":J2_0_3" dir="s" state="M"/>
    <connection from="E_highway" to="E_exit" fromLane="0" toLane="0" via=":J3_0_0" dir="s" state="M"/>
    <connection from="E_highway" to="E_exit" fromLane="1" toLane="1" via=":J3_0_1" dir="s" state="M"/>
    <connection from="E_highway" to="E_exit" fromLane="2" toLane="2" via=":J3_0_2" dir="s" state="M"/>
    <connection from="E_highway" to="E_exit" fromLane="3" toLane="3" via=":J3_0_3" dir="s" state="M"/>

    <connection from=":J2_0" to="E_highway" fromLane="0" toLane="0" dir="s" state="M"/>
    <connection from=":J2_0" to="E_highway" fromLane="1" toLane="1" dir="s" state="M"/>
    <connection from=":J2_0" to="E_highway" fromLane="2" toLane="2" dir="s" state="M"/>
    <connection from=":J2_0" to="E_highway" fromLane="3" toLane="3" dir="s" state="M"/>
    <connection from=":J3_0" to="E_exit" fromLane="0" toLane="0" dir="s" state="M"/>
    <connection from=":J3_0" to="E_exit" fromLane="1" toLane="1" dir="s" state="M"/>
    <connection from=":J3_0" to="E_exit" fromLane="2" toLane="2" dir="s" state="M"/>
    <connection from=":J3_0" to="E_exit" fromLane="3" toLane="3" dir="s" state="M"/>

</net>
