<configuration>
   <input>
       <net-file value="tuto_autobahn.net.xml"/>
       <route-files value="tuto_autobahn.rou.xml"/>
       <gui-settings-file value="tuto_autobahn.view.xml"/>
   </input>
</configuration>
