<?xml version="1.0" encoding="UTF-8"?>

<!-- generated on 2026-07-07T09:31:53.707208+09:00 by Eclipse SUMO netedit 1.27.1
-->

<routes xmlns:xsi="http://www.w3.org/2001/XMLSchema-instance" xsi:noNamespaceSchemaLocation="http://sumo.dlr.de/xsd/routes_file.xsd">
    <!-- Routes -->
    <route id="r_0" edges="1 2"/>
    <!-- Vehicles, persons and containers (sorted by depart) -->
    <vehicle id="v_0" depart="0.00" color="64,0,255" route="r_0"/>
    <vehicle id="v_1" depart="0.00" color="22,0,255" route="r_0"/>
</routes>
