<?xml version="1.0" encoding="UTF-8"?>

<!-- generated on 2026-07-08T13:46:46.627830+09:00 by Eclipse SUMO netedit 1.27.1
<neteditConfiguration xmlns:xsi="http://www.w3.org/2001/XMLSchema-instance" xsi:noNamespaceSchemaLocation="http://sumo.dlr.de/xsd/neteditConfiguration.xsd">

    <input>
        <sumo-net-file value="/home/tae/Tae_ws/P__Autonomous_driving_of_intersection_situations_using_Ubuntu_ROS2_SUMO_Rviz2/test_sumo/sumo_xml_cfg/quickstart_tuto.net.xml"/>
    </input>

    <output>
        <output-file value="/home/tae/Tae_ws/P__Autonomous_driving_of_intersection_situations_using_Ubuntu_ROS2_SUMO_Rviz2/test_sumo/sumo_xml_cfg/quickstart_tuto.net.xml"/>
    </output>

    <processing>
        <offset.disable-normalization value="true"/>
    </processing>

    <junctions>
        <no-turnarounds value="true"/>
    </junctions>

    <netedit>
        <new-network value="false"/>
    </netedit>

</neteditConfiguration>
-->

<net version="1.20" junctionCornerDetail="5" limitTurnSpeed="5.50" xmlns:xsi="http://www.w3.org/2001/XMLSchema-instance" xsi:noNamespaceSchemaLocation="http://sumo.dlr.de/xsd/net_file.xsd">

    <location netOffset="0.00,0.00" convBoundary="0.00,0.00,4000.00,1000.00" origBoundary="10000000000.00,10000000000.00,-10000000000.00,-10000000000.00" projParameter="!"/>

    <edge id=":J1_0" function="internal">
        <lane id=":J1_0_0" index="0" speed="13.89" length="8.00" shape="1004.00,1008.00 996.00,1008.00"/>
        <lane id=":J1_0_1" index="1" speed="13.89" length="8.00" shape="1004.00,1004.80 996.00,1004.80"/>
        <lane id=":J1_0_2" index="2" speed="13.89" length="8.00" shape="1004.00,1001.60 996.00,1001.60"/>
    </edge>
    <edge id=":J1_3" function="internal">
        <lane id=":J1_3_0" index="0" speed="13.89" length="8.54" shape="996.00,995.20 998.46,994.70 1000.00,993.60 1001.54,992.50 1004.00,992.00"/>
        <lane id=":J1_3_1" index="1" speed="13.89" length="8.54" shape="996.00,998.40 998.46,997.90 1000.00,996.80 1001.54,995.70 1004.00,995.20"/>
        <lane id=":J1_3_2" index="2" speed="13.89" length="8.54" shape="996.00,998.40 1004.00,998.40"/>
    </edge>
    <edge id=":J2_0" function="internal">
        <lane id=":J2_0_0" index="0" speed="13.89" length="8.00" shape="1004.00,8.00 996.00,8.00"/>
        <lane id=":J2_0_1" index="1" speed="13.89" length="8.00" shape="1004.00,4.80 996.00,4.80"/>
        <lane id=":J2_0_2" index="2" speed="13.89" length="8.00" shape="1004.00,1.60 996.00,1.60"/>
    </edge>
    <edge id=":J2_3" function="internal">
        <lane id=":J2_3_0" index="0" speed="13.89" length="8.54" shape="996.00,-4.80 998.46,-5.30 1000.00,-6.40 1001.54,-7.50 1004.00,-8.00"/>
        <lane id=":J2_3_1" index="1" speed="13.89" length="8.54" shape="996.00,-1.60 998.46,-2.10 1000.00,-3.20 1001.54,-4.30 1004.00,-4.80"/>
        <lane id=":J2_3_2" index="2" speed="13.89" length="8.54" shape="996.00,-1.60 1004.00,-1.60"/>
    </edge>
    <edge id=":J3_0" function="internal">
        <lane id=":J3_0_0" index="0" speed="6.51" length="9.03" shape="1992.00,13.60 1991.65,11.15 1990.60,9.40 1988.85,8.35 1986.40,8.00"/>
    </edge>
    <edge id=":J3_1" function="internal">
        <lane id=":J3_1_0" index="0" speed="11.36" length="29.67" shape="1995.20,13.60 1996.35,5.55 1999.80,-0.20 2005.55,-3.65 2013.60,-4.80"/>
        <lane id=":J3_1_1" index="1" speed="10.36" length="24.51" shape="1998.40,13.60 1999.35,6.95 2002.20,2.20 2006.95,-0.65 2013.60,-1.60"/>
    </edge>
    <edge id=":J3_3" function="internal">
        <lane id=":J3_3_0" index="0" speed="6.51" length="9.03" shape="2013.60,8.00 2011.15,8.35 2009.40,9.40 2008.35,11.15 2008.00,13.60"/>
    </edge>
    <edge id=":J3_4" function="internal">
        <lane id=":J3_4_0" index="0" speed="13.89" length="27.20" shape="2013.60,8.00 1986.40,8.00"/>
        <lane id=":J3_4_1" index="1" speed="13.89" length="27.20" shape="2013.60,4.80 1986.40,4.80"/>
        <lane id=":J3_4_2" index="2" speed="13.89" length="27.20" shape="2013.60,1.60 1986.40,1.60"/>
    </edge>
    <edge id=":J3_7" function="internal">
        <lane id=":J3_7_0" index="0" speed="13.89" length="27.20" shape="1986.40,-8.00 2013.60,-8.00"/>
        <lane id=":J3_7_1" index="1" speed="13.89" length="27.20" shape="1986.40,-4.80 2013.60,-4.80"/>
        <lane id=":J3_7_2" index="2" speed="13.89" length="27.20" shape="1986.40,-1.60 2013.60,-1.60"/>
    </edge>
    <edge id=":J3_10" function="internal">
        <lane id=":J3_10_0" index="0" speed="10.88" length="6.03" shape="1986.40,-1.60 1992.38,-0.89"/>
        <lane id=":J3_10_1" index="1" speed="10.36" length="5.01" shape="1986.40,-1.60 1991.36,-0.89"/>
    </edge>
    <edge id=":J3_12" function="internal">
        <lane id=":J3_12_0" index="0" speed="10.88" length="21.12" shape="1992.38,-0.89 1994.45,-0.65 2000.20,2.20 2003.65,6.95 2004.80,13.60"/>
        <lane id=":J3_12_1" index="0" speed="10.36" length="19.50" shape="1991.36,-0.89 1993.05,-0.65 1997.80,2.20 2000.65,6.95 2001.60,13.60"/>
    </edge>
    <edge id=":J4_0" function="internal">
        <lane id=":J4_0_0" index="0" speed="13.89" length="8.54" shape="3004.00,4.80 3001.54,5.30 3000.00,6.40 2998.46,7.50 2996.00,8.00"/>
        <lane id=":J4_0_1" index="1" speed="13.89" length="8.54" shape="3004.00,1.60 3001.54,2.10 3000.00,3.20 2998.46,4.30 2996.00,4.80"/>
        <lane id=":J4_0_2" index="2" speed="13.89" length="8.54" shape="3004.00,1.60 2996.00,1.60"/>
    </edge>
    <edge id=":J4_3" function="internal">
        <lane id=":J4_3_0" index="0" speed="13.89" length="8.00" shape="2996.00,-8.00 3004.00,-8.00"/>
        <lane id=":J4_3_1" index="1" speed="13.89" length="8.00" shape="2996.00,-4.80 3004.00,-4.80"/>
        <lane id=":J4_3_2" index="2" speed="13.89" length="8.00" shape="2996.00,-1.60 3004.00,-1.60"/>
    </edge>
    <edge id=":J5_0" function="internal">
        <lane id=":J5_0_0" index="0" speed="13.89" length="8.54" shape="3004.00,1004.80 3001.54,1005.30 3000.00,1006.40 2998.46,1007.50 2996.00,1008.00"/>
        <lane id=":J5_0_1" index="1" speed="13.89" length="8.54" shape="3004.00,1001.60 3001.54,1002.10 3000.00,1003.20 2998.46,1004.30 2996.00,1004.80"/>
        <lane id=":J5_0_2" index="2" speed="13.89" length="8.54" shape="3004.00,1001.60 2996.00,1001.60"/>
    </edge>
    <edge id=":J5_3" function="internal">
        <lane id=":J5_3_0" index="0" speed="13.89" length="8.00" shape="2996.00,992.00 3004.00,992.00"/>
        <lane id=":J5_3_1" index="1" speed="13.89" length="8.00" shape="2996.00,995.20 3004.00,995.20"/>
        <lane id=":J5_3_2" index="2" speed="13.89" length="8.00" shape="2996.00,998.40 3004.00,998.40"/>
    </edge>
    <edge id=":J6_0" function="internal">
        <lane id=":J6_0_0" index="0" speed="13.89" length="27.20" shape="2013.60,1008.00 1986.40,1008.00"/>
        <lane id=":J6_0_1" index="1" speed="13.89" length="27.20" shape="2013.60,1004.80 1986.40,1004.80"/>
        <lane id=":J6_0_2" index="2" speed="13.89" length="27.20" shape="2013.60,1001.60 1986.40,1001.60"/>
    </edge>
    <edge id=":J6_3" function="internal">
        <lane id=":J6_3_0" index="0" speed="10.88" length="6.03" shape="2013.60,1001.60 2007.62,1000.89"/>
        <lane id=":J6_3_1" index="1" speed="10.36" length="5.01" shape="2013.60,1001.60 2008.64,1000.89"/>
    </edge>
    <edge id=":J6_12" function="internal">
        <lane id=":J6_12_0" index="0" speed="10.88" length="21.12" shape="2007.62,1000.89 2005.55,1000.65 1999.80,997.80 1996.35,993.05 1995.20,986.40"/>
        <lane id=":J6_12_1" index="0" speed="10.36" length="19.50" shape="2008.64,1000.89 2006.95,1000.65 2002.20,997.80 1999.35,993.05 1998.40,986.40"/>
    </edge>
    <edge id=":J6_5" function="internal">
        <lane id=":J6_5_0" index="0" speed="6.51" length="9.03" shape="2008.00,986.40 2008.35,988.85 2009.40,990.60 2011.15,991.65 2013.60,992.00"/>
    </edge>
    <edge id=":J6_6" function="internal">
        <lane id=":J6_6_0" index="0" speed="11.36" length="29.67" shape="2004.80,986.40 2003.65,994.45 2000.20,1000.20 1994.45,1003.65 1986.40,1004.80"/>
        <lane id=":J6_6_1" index="1" speed="10.36" length="24.51" shape="2001.60,986.40 2000.65,993.05 1997.80,997.80 1993.05,1000.65 1986.40,1001.60"/>
    </edge>
    <edge id=":J6_8" function="internal">
        <lane id=":J6_8_0" index="0" speed="6.51" length="9.03" shape="1986.40,992.00 1988.85,991.65 1990.60,990.60 1991.65,988.85 1992.00,986.40"/>
    </edge>
    <edge id=":J6_9" function="internal">
        <lane id=":J6_9_0" index="0" speed="13.89" length="27.20" shape="1986.40,992.00 2013.60,992.00"/>
        <lane id=":J6_9_1" index="1" speed="13.89" length="27.20" shape="1986.40,995.20 2013.60,995.20"/>
        <lane id=":J6_9_2" index="2" speed="13.89" length="27.20" shape="1986.40,998.40 2013.60,998.40"/>
    </edge>
    <edge id=":J911_0" function="internal">
        <lane id=":J911_0_0" index="0" speed="13.89" length="0.10" shape="500.00,1008.00 500.00,1008.00"/>
        <lane id=":J911_0_1" index="1" speed="13.89" length="0.10" shape="500.00,1004.80 500.00,1004.80"/>
        <lane id=":J911_0_2" index="2" speed="13.89" length="0.10" shape="500.00,1001.60 500.00,1001.60"/>
    </edge>
    <edge id=":J911_3" function="internal">
        <lane id=":J911_3_0" index="0" speed="13.89" length="0.10" shape="500.00,995.20 500.00,995.20"/>
        <lane id=":J911_3_1" index="1" speed="13.89" length="0.10" shape="500.00,998.40 500.00,998.40"/>
    </edge>
    <edge id=":J912_0" function="internal">
        <lane id=":J912_0_0" index="0" speed="13.89" length="0.10" shape="500.00,8.00 500.00,8.00"/>
        <lane id=":J912_0_1" index="1" speed="13.89" length="0.10" shape="500.00,4.80 500.00,4.80"/>
        <lane id=":J912_0_2" index="2" speed="13.89" length="0.10" shape="500.00,1.60 500.00,1.60"/>
    </edge>
    <edge id=":J912_3" function="internal">
        <lane id=":J912_3_0" index="0" speed="13.89" length="0.10" shape="500.00,-4.80 500.00,-4.80"/>
        <lane id=":J912_3_1" index="1" speed="13.89" length="0.10" shape="500.00,-1.60 500.00,-1.60"/>
    </edge>
    <edge id=":J913_0" function="internal">
        <lane id=":J913_0_0" index="0" speed="13.89" length="0.10" shape="3500.00,4.80 3500.00,4.80"/>
        <lane id=":J913_0_1" index="1" speed="13.89" length="0.10" shape="3500.00,1.60 3500.00,1.60"/>
    </edge>
    <edge id=":J913_2" function="internal">
        <lane id=":J913_2_0" index="0" speed="13.89" length="0.10" shape="3500.00,-8.00 3500.00,-8.00"/>
        <lane id=":J913_2_1" index="1" speed="13.89" length="0.10" shape="3500.00,-4.80 3500.00,-4.80"/>
        <lane id=":J913_2_2" index="2" speed="13.89" length="0.10" shape="3500.00,-1.60 3500.00,-1.60"/>
    </edge>
    <edge id=":J914_0" function="internal">
        <lane id=":J914_0_0" index="0" speed="13.89" length="0.10" shape="3500.00,1004.80 3500.00,1004.80"/>
        <lane id=":J914_0_1" index="1" speed="13.89" length="0.10" shape="3500.00,1001.60 3500.00,1001.60"/>
    </edge>
    <edge id=":J914_2" function="internal">
        <lane id=":J914_2_0" index="0" speed="13.89" length="0.10" shape="3500.00,992.00 3500.00,992.00"/>
        <lane id=":J914_2_1" index="1" speed="13.89" length="0.10" shape="3500.00,995.20 3500.00,995.20"/>
        <lane id=":J914_2_2" index="2" speed="13.89" length="0.10" shape="3500.00,998.40 3500.00,998.40"/>
    </edge>

    <edge id="D1" from="J911" to="J91" priority="3" type="a">
        <lane id="D1_0" index="0" speed="13.89" length="500.00" shape="500.00,1008.00 0.00,1008.00"/>
        <lane id="D1_1" index="1" speed="13.89" length="500.00" shape="500.00,1004.80 0.00,1004.80"/>
        <lane id="D1_2" index="2" speed="13.89" length="500.00" shape="500.00,1001.60 0.00,1001.60"/>
    </edge>
    <edge id="D2" from="J91" to="J911" priority="3" type="b">
        <lane id="D2_0" index="0" speed="13.89" length="500.00" shape="0.00,995.20 500.00,995.20"/>
        <lane id="D2_1" index="1" speed="13.89" length="500.00" shape="0.00,998.40 500.00,998.40"/>
    </edge>
    <edge id="D3" from="J912" to="J92" priority="3" type="a">
        <lane id="D3_0" index="0" speed="13.89" length="500.00" shape="500.00,8.00 0.00,8.00"/>
        <lane id="D3_1" index="1" speed="13.89" length="500.00" shape="500.00,4.80 0.00,4.80"/>
        <lane id="D3_2" index="2" speed="13.89" length="500.00" shape="500.00,1.60 0.00,1.60"/>
    </edge>
    <edge id="D4" from="J92" to="J912" priority="3" type="b">
        <lane id="D4_0" index="0" speed="13.89" length="500.00" shape="0.00,-4.80 500.00,-4.80"/>
        <lane id="D4_1" index="1" speed="13.89" length="500.00" shape="0.00,-1.60 500.00,-1.60"/>
    </edge>
    <edge id="D5" from="J913" to="J93" priority="3" type="a">
        <lane id="D5_0" index="0" speed="13.89" length="500.00" shape="3500.00,-8.00 4000.00,-8.00"/>
        <lane id="D5_1" index="1" speed="13.89" length="500.00" shape="3500.00,-4.80 4000.00,-4.80"/>
        <lane id="D5_2" index="2" speed="13.89" length="500.00" shape="3500.00,-1.60 4000.00,-1.60"/>
    </edge>
    <edge id="D6" from="J93" to="J913" priority="3" type="b">
        <lane id="D6_0" index="0" speed="13.89" length="500.00" shape="4000.00,4.80 3500.00,4.80"/>
        <lane id="D6_1" index="1" speed="13.89" length="500.00" shape="4000.00,1.60 3500.00,1.60"/>
    </edge>
    <edge id="D7" from="J914" to="J94" priority="3" type="a">
        <lane id="D7_0" index="0" speed="13.89" length="500.00" shape="3500.00,992.00 4000.00,992.00"/>
        <lane id="D7_1" index="1" speed="13.89" length="500.00" shape="3500.00,995.20 4000.00,995.20"/>
        <lane id="D7_2" index="2" speed="13.89" length="500.00" shape="3500.00,998.40 4000.00,998.40"/>
    </edge>
    <edge id="D8" from="J94" to="J914" priority="3" type="b">
        <lane id="D8_0" index="0" speed="13.89" length="500.00" shape="4000.00,1004.80 3500.00,1004.80"/>
        <lane id="D8_1" index="1" speed="13.89" length="500.00" shape="4000.00,1001.60 3500.00,1001.60"/>
    </edge>
    <edge id="L1" from="J1" to="J911" priority="3" type="a">
        <lane id="L1_0" index="0" speed="13.89" length="496.00" shape="996.00,1008.00 500.00,1008.00"/>
        <lane id="L1_1" index="1" speed="13.89" length="496.00" shape="996.00,1004.80 500.00,1004.80"/>
        <lane id="L1_2" index="2" speed="13.89" length="496.00" shape="996.00,1001.60 500.00,1001.60"/>
    </edge>
    <edge id="L10" from="J6" to="J5" priority="3" type="a">
        <lane id="L10_0" index="0" speed="13.89" length="982.40" shape="2013.60,992.00 2996.00,992.00"/>
        <lane id="L10_1" index="1" speed="13.89" length="982.40" shape="2013.60,995.20 2996.00,995.20"/>
        <lane id="L10_2" index="2" speed="13.89" length="982.40" shape="2013.60,998.40 2996.00,998.40"/>
    </edge>
    <edge id="L11" from="J6" to="J1" priority="3" type="a">
        <lane id="L11_0" index="0" speed="13.89" length="982.40" shape="1986.40,1008.00 1004.00,1008.00"/>
        <lane id="L11_1" index="1" speed="13.89" length="982.40" shape="1986.40,1004.80 1004.00,1004.80"/>
        <lane id="L11_2" index="2" speed="13.89" length="982.40" shape="1986.40,1001.60 1004.00,1001.60"/>
    </edge>
    <edge id="L12" from="J1" to="J6" priority="3" type="a">
        <lane id="L12_0" index="0" speed="13.89" length="982.40" shape="1004.00,992.00 1986.40,992.00"/>
        <lane id="L12_1" index="1" speed="13.89" length="982.40" shape="1004.00,995.20 1986.40,995.20"/>
        <lane id="L12_2" index="2" speed="13.89" length="982.40" shape="1004.00,998.40 1986.40,998.40"/>
    </edge>
    <edge id="L13" from="J3" to="J2" priority="3" type="a">
        <lane id="L13_0" index="0" speed="13.89" length="982.40" shape="1986.40,8.00 1004.00,8.00"/>
        <lane id="L13_1" index="1" speed="13.89" length="982.40" shape="1986.40,4.80 1004.00,4.80"/>
        <lane id="L13_2" index="2" speed="13.89" length="982.40" shape="1986.40,1.60 1004.00,1.60"/>
    </edge>
    <edge id="L14" from="J2" to="J3" priority="3" type="a">
        <lane id="L14_0" index="0" speed="13.89" length="982.40" shape="1004.00,-8.00 1986.40,-8.00"/>
        <lane id="L14_1" index="1" speed="13.89" length="982.40" shape="1004.00,-4.80 1986.40,-4.80"/>
        <lane id="L14_2" index="2" speed="13.89" length="982.40" shape="1004.00,-1.60 1986.40,-1.60"/>
    </edge>
    <edge id="L15" from="J6" to="J3" priority="2" type="c">
        <lane id="L15_0" index="0" speed="13.89" length="972.80" shape="1992.00,986.40 1992.00,13.60"/>
        <lane id="L15_1" index="1" speed="13.89" length="972.80" shape="1995.20,986.40 1995.20,13.60"/>
        <lane id="L15_2" index="2" speed="13.89" length="972.80" shape="1998.40,986.40 1998.40,13.60"/>
    </edge>
    <edge id="L16" from="J3" to="J6" priority="2" type="c">
        <lane id="L16_0" index="0" speed="13.89" length="972.80" shape="2008.00,13.60 2008.00,986.40"/>
        <lane id="L16_1" index="1" speed="13.89" length="972.80" shape="2004.80,13.60 2004.80,986.40"/>
        <lane id="L16_2" index="2" speed="13.89" length="972.80" shape="2001.60,13.60 2001.60,986.40"/>
    </edge>
    <edge id="L17" from="J4" to="J3" priority="3" type="a">
        <lane id="L17_0" index="0" speed="13.89" length="982.40" shape="2996.00,8.00 2013.60,8.00"/>
        <lane id="L17_1" index="1" speed="13.89" length="982.40" shape="2996.00,4.80 2013.60,4.80"/>
        <lane id="L17_2" index="2" speed="13.89" length="982.40" shape="2996.00,1.60 2013.60,1.60"/>
    </edge>
    <edge id="L18" from="J3" to="J4" priority="3" type="a">
        <lane id="L18_0" index="0" speed="13.89" length="982.40" shape="2013.60,-8.00 2996.00,-8.00"/>
        <lane id="L18_1" index="1" speed="13.89" length="982.40" shape="2013.60,-4.80 2996.00,-4.80"/>
        <lane id="L18_2" index="2" speed="13.89" length="982.40" shape="2013.60,-1.60 2996.00,-1.60"/>
    </edge>
    <edge id="L2" from="J911" to="J1" priority="3" type="b">
        <lane id="L2_0" index="0" speed="13.89" length="496.00" shape="500.00,995.20 996.00,995.20"/>
        <lane id="L2_1" index="1" speed="13.89" length="496.00" shape="500.00,998.40 996.00,998.40"/>
    </edge>
    <edge id="L3" from="J2" to="J912" priority="3" type="a">
        <lane id="L3_0" index="0" speed="13.89" length="496.00" shape="996.00,8.00 500.00,8.00"/>
        <lane id="L3_1" index="1" speed="13.89" length="496.00" shape="996.00,4.80 500.00,4.80"/>
        <lane id="L3_2" index="2" speed="13.89" length="496.00" shape="996.00,1.60 500.00,1.60"/>
    </edge>
    <edge id="L4" from="J912" to="J2" priority="3" type="b">
        <lane id="L4_0" index="0" speed="13.89" length="496.00" shape="500.00,-4.80 996.00,-4.80"/>
        <lane id="L4_1" index="1" speed="13.89" length="496.00" shape="500.00,-1.60 996.00,-1.60"/>
    </edge>
    <edge id="L5" from="J4" to="J913" priority="3" type="a">
        <lane id="L5_0" index="0" speed="13.89" length="496.00" shape="3004.00,-8.00 3500.00,-8.00"/>
        <lane id="L5_1" index="1" speed="13.89" length="496.00" shape="3004.00,-4.80 3500.00,-4.80"/>
        <lane id="L5_2" index="2" speed="13.89" length="496.00" shape="3004.00,-1.60 3500.00,-1.60"/>
    </edge>
    <edge id="L6" from="J913" to="J4" priority="3" type="b">
        <lane id="L6_0" index="0" speed="13.89" length="496.00" shape="3500.00,4.80 3004.00,4.80"/>
        <lane id="L6_1" index="1" speed="13.89" length="496.00" shape="3500.00,1.60 3004.00,1.60"/>
    </edge>
    <edge id="L7" from="J5" to="J914" priority="3" type="a">
        <lane id="L7_0" index="0" speed="13.89" length="496.00" shape="3004.00,992.00 3500.00,992.00"/>
        <lane id="L7_1" index="1" speed="13.89" length="496.00" shape="3004.00,995.20 3500.00,995.20"/>
        <lane id="L7_2" index="2" speed="13.89" length="496.00" shape="3004.00,998.40 3500.00,998.40"/>
    </edge>
    <edge id="L8" from="J914" to="J5" priority="3">
        <lane id="L8_0" index="0" speed="13.89" length="496.00" shape="3500.00,1004.80 3004.00,1004.80"/>
        <lane id="L8_1" index="1" speed="13.89" length="496.00" shape="3500.00,1001.60 3004.00,1001.60"/>
    </edge>
    <edge id="L9" from="J5" to="J6" priority="3" type="a">
        <lane id="L9_0" index="0" speed="13.89" length="982.40" shape="2996.00,1008.00 2013.60,1008.00"/>
        <lane id="L9_1" index="1" speed="13.89" length="982.40" shape="2996.00,1004.80 2013.60,1004.80"/>
        <lane id="L9_2" index="2" speed="13.89" length="982.40" shape="2996.00,1001.60 2013.60,1001.60"/>
    </edge>

    <junction id="J1" type="priority" x="1000.00" y="1000.00" incLanes="L11_0 L11_1 L11_2 L2_0 L2_1" intLanes=":J1_0_0 :J1_0_1 :J1_0_2 :J1_3_0 :J1_3_1 :J1_3_2" shape="1004.00,1009.60 1004.00,990.40 1000.97,991.23 999.03,992.77 997.79,993.36 996.00,993.60 996.00,1009.60">
        <request index="0" response="000000" foes="000000" cont="0"/>
        <request index="1" response="000000" foes="000000" cont="0"/>
        <request index="2" response="000000" foes="000000" cont="0"/>
        <request index="3" response="000000" foes="000000" cont="0"/>
        <request index="4" response="000000" foes="000000" cont="0"/>
        <request index="5" response="000000" foes="000000" cont="0"/>
    </junction>
    <junction id="J2" type="priority" x="1000.00" y="0.00" incLanes="L13_0 L13_1 L13_2 L4_0 L4_1" intLanes=":J2_0_0 :J2_0_1 :J2_0_2 :J2_3_0 :J2_3_1 :J2_3_2" shape="1004.00,9.60 1004.00,-9.60 1000.97,-8.77 999.03,-7.23 997.79,-6.64 996.00,-6.40 996.00,9.60">
        <request index="0" response="000000" foes="000000" cont="0"/>
        <request index="1" response="000000" foes="000000" cont="0"/>
        <request index="2" response="000000" foes="000000" cont="0"/>
        <request index="3" response="000000" foes="000000" cont="0"/>
        <request index="4" response="000000" foes="000000" cont="0"/>
        <request index="5" response="000000" foes="000000" cont="0"/>
    </junction>
    <junction id="J3" type="priority" x="2000.00" y="0.00" incLanes="L15_0 L15_1 L15_2 L17_0 L17_1 L17_2 L14_0 L14_1 L14_2" intLanes=":J3_0_0 :J3_1_0 :J3_1_1 :J3_3_0 :J3_4_0 :J3_4_1 :J3_4_2 :J3_7_0 :J3_7_1 :J3_7_2 :J3_12_0 :J3_12_1" shape="1990.40,13.60 2009.60,13.60 2010.04,11.38 2010.60,10.60 2011.38,10.04 2012.38,9.71 2013.60,9.60 2013.60,-9.60 1986.40,-9.60 1986.40,9.60 1988.62,10.04 1989.40,10.60 1989.96,11.38 1990.29,12.38">
        <request index="0"  response="000001110000" foes="000001110000" cont="0"/>
        <request index="1"  response="111111110000" foes="111111110000" cont="0"/>
        <request index="2"  response="111111110000" foes="111111110000" cont="0"/>
        <request index="3"  response="000000000000" foes="000000000000" cont="0"/>
        <request index="4"  response="000000000000" foes="110000000111" cont="0"/>
        <request index="5"  response="000000000000" foes="110000000111" cont="0"/>
        <request index="6"  response="000000000000" foes="110000000111" cont="0"/>
        <request index="7"  response="000000000000" foes="000000000110" cont="0"/>
        <request index="8"  response="000000000000" foes="000000000110" cont="0"/>
        <request index="9"  response="000000000000" foes="000000000110" cont="0"/>
        <request index="10" response="000001110000" foes="000001110110" cont="1"/>
        <request index="11" response="000001110000" foes="000001110110" cont="1"/>
    </junction>
    <junction id="J4" type="priority" x="3000.00" y="0.00" incLanes="L6_0 L6_1 L18_0 L18_1 L18_2" intLanes=":J4_0_0 :J4_0_1 :J4_0_2 :J4_3_0 :J4_3_1 :J4_3_2" shape="3004.00,6.40 3004.00,-9.60 2996.00,-9.60 2996.00,9.60 2999.03,8.77 3000.97,7.23 3002.21,6.64">
        <request index="0" response="000000" foes="000000" cont="0"/>
        <request index="1" response="000000" foes="000000" cont="0"/>
        <request index="2" response="000000" foes="000000" cont="0"/>
        <request index="3" response="000000" foes="000000" cont="0"/>
        <request index="4" response="000000" foes="000000" cont="0"/>
        <request index="5" response="000000" foes="000000" cont="0"/>
    </junction>
    <junction id="J5" type="priority" x="3000.00" y="1000.00" incLanes="L8_0 L8_1 L10_0 L10_1 L10_2" intLanes=":J5_0_0 :J5_0_1 :J5_0_2 :J5_3_0 :J5_3_1 :J5_3_2" shape="3004.00,1006.40 3004.00,990.40 2996.00,990.40 2996.00,1009.60 2999.03,1008.77 3000.97,1007.23 3002.21,1006.64">
        <request index="0" response="000000" foes="000000" cont="0"/>
        <request index="1" response="000000" foes="000000" cont="0"/>
        <request index="2" response="000000" foes="000000" cont="0"/>
        <request index="3" response="000000" foes="000000" cont="0"/>
        <request index="4" response="000000" foes="000000" cont="0"/>
        <request index="5" response="000000" foes="000000" cont="0"/>
    </junction>
    <junction id="J6" type="priority" x="2000.00" y="1000.00" incLanes="L9_0 L9_1 L9_2 L16_0 L16_1 L16_2 L12_0 L12_1 L12_2" intLanes=":J6_0_0 :J6_0_1 :J6_0_2 :J6_12_0 :J6_12_1 :J6_5_0 :J6_6_0 :J6_6_1 :J6_8_0 :J6_9_0 :J6_9_1 :J6_9_2" shape="2013.60,1009.60 2013.60,990.40 2011.38,989.96 2010.60,989.40 2010.04,988.62 2009.71,987.62 2009.60,986.40 1990.40,986.40 1989.96,988.62 1989.40,989.40 1988.62,989.96 1987.62,990.29 1986.40,990.40 1986.40,1009.60">
        <request index="0"  response="000000000000" foes="000011000000" cont="0"/>
        <request index="1"  response="000000000000" foes="000011000000" cont="0"/>
        <request index="2"  response="000000000000" foes="000011000000" cont="0"/>
        <request index="3"  response="111000000000" foes="111011000000" cont="1"/>
        <request index="4"  response="111000000000" foes="111011000000" cont="1"/>
        <request index="5"  response="111000000000" foes="111000000000" cont="0"/>
        <request index="6"  response="111000011111" foes="111000011111" cont="0"/>
        <request index="7"  response="111000011111" foes="111000011111" cont="0"/>
        <request index="8"  response="000000000000" foes="000000000000" cont="0"/>
        <request index="9"  response="000000000000" foes="000011111000" cont="0"/>
        <request index="10" response="000000000000" foes="000011111000" cont="0"/>
        <request index="11" response="000000000000" foes="000011111000" cont="0"/>
    </junction>
    <junction id="J91" type="dead_end" x="0.00" y="1000.00" incLanes="D1_0 D1_1 D1_2" intLanes="" shape="0.00,1000.00 0.00,1009.60 0.00,1000.00"/>
    <junction id="J911" type="priority" x="500.00" y="1000.00" incLanes="L1_0 L1_1 L1_2 D2_0 D2_1" intLanes=":J911_0_0 :J911_0_1 :J911_0_2 :J911_3_0 :J911_3_1" shape="500.00,1009.60 500.00,993.60 500.00,1009.60">
        <request index="0" response="00000" foes="00000" cont="0"/>
        <request index="1" response="00000" foes="00000" cont="0"/>
        <request index="2" response="00000" foes="00000" cont="0"/>
        <request index="3" response="00000" foes="00000" cont="0"/>
        <request index="4" response="00000" foes="00000" cont="0"/>
    </junction>
    <junction id="J912" type="priority" x="500.00" y="0.00" incLanes="L3_0 L3_1 L3_2 D4_0 D4_1" intLanes=":J912_0_0 :J912_0_1 :J912_0_2 :J912_3_0 :J912_3_1" shape="500.00,9.60 500.00,-6.40 500.00,9.60">
        <request index="0" response="00000" foes="00000" cont="0"/>
        <request index="1" response="00000" foes="00000" cont="0"/>
        <request index="2" response="00000" foes="00000" cont="0"/>
        <request index="3" response="00000" foes="00000" cont="0"/>
        <request index="4" response="00000" foes="00000" cont="0"/>
    </junction>
    <junction id="J913" type="priority" x="3500.00" y="0.00" incLanes="D6_0 D6_1 L5_0 L5_1 L5_2" intLanes=":J913_0_0 :J913_0_1 :J913_2_0 :J913_2_1 :J913_2_2" shape="3500.00,6.40 3500.00,-9.60 3500.00,6.40">
        <request index="0" response="00000" foes="00000" cont="0"/>
        <request index="1" response="00000" foes="00000" cont="0"/>
        <request index="2" response="00000" foes="00000" cont="0"/>
        <request index="3" response="00000" foes="00000" cont="0"/>
        <request index="4" response="00000" foes="00000" cont="0"/>
    </junction>
    <junction id="J914" type="priority" x="3500.00" y="1000.00" incLanes="D8_0 D8_1 L7_0 L7_1 L7_2" intLanes=":J914_0_0 :J914_0_1 :J914_2_0 :J914_2_1 :J914_2_2" shape="3500.00,1006.40 3500.00,990.40 3500.00,1006.40">
        <request index="0" response="00000" foes="00000" cont="0"/>
        <request index="1" response="00000" foes="00000" cont="0"/>
        <request index="2" response="00000" foes="00000" cont="0"/>
        <request index="3" response="00000" foes="00000" cont="0"/>
        <request index="4" response="00000" foes="00000" cont="0"/>
    </junction>
    <junction id="J92" type="dead_end" x="0.00" y="0.00" incLanes="D3_0 D3_1 D3_2" intLanes="" shape="0.00,0.00 0.00,9.60 0.00,0.00"/>
    <junction id="J93" type="dead_end" x="4000.00" y="0.00" incLanes="D5_0 D5_1 D5_2" intLanes="" shape="4000.00,0.00 4000.00,-9.60 4000.00,0.00"/>
    <junction id="J94" type="dead_end" x="4000.00" y="1000.00" incLanes="D7_0 D7_1 D7_2" intLanes="" shape="4000.00,1000.00 4000.00,990.40 4000.00,1000.00"/>

    <junction id=":J3_12_0" type="internal" x="1992.38" y="-0.89" incLanes=":J3_10_0 L17_0 L17_1 L17_2" intLanes=":J3_1_0 :J3_1_1 :J3_4_0 :J3_4_1 :J3_4_2"/>
    <junction id=":J3_12_1" type="internal" x="1991.36" y="-0.89" incLanes=":J3_10_1 L17_0 L17_1 L17_2" intLanes=":J3_1_0 :J3_1_1 :J3_4_0 :J3_4_1 :J3_4_2"/>
    <junction id=":J6_12_0" type="internal" x="2007.62" y="1000.89" incLanes=":J6_3_0 L12_0 L12_1 L12_2" intLanes=":J6_6_0 :J6_6_1 :J6_9_0 :J6_9_1 :J6_9_2"/>
    <junction id=":J6_12_1" type="internal" x="2008.64" y="1000.89" incLanes=":J6_3_1 L12_0 L12_1 L12_2" intLanes=":J6_6_0 :J6_6_1 :J6_9_0 :J6_9_1 :J6_9_2"/>

    <connection from="D2" to="L2" fromLane="0" toLane="0" via=":J911_3_0" dir="s" state="M"/>
    <connection from="D2" to="L2" fromLane="1" toLane="1" via=":J911_3_1" dir="s" state="M"/>
    <connection from="D4" to="L4" fromLane="0" toLane="0" via=":J912_3_0" dir="s" state="M"/>
    <connection from="D4" to="L4" fromLane="1" toLane="1" via=":J912_3_1" dir="s" state="M"/>