<?xml version="1.0" encoding="UTF-8"?>

<!-- generated on 2026-07-08T16:10:55.704229+09:00 by Eclipse SUMO netedit 1.27.1
<neteditConfiguration xmlns:xsi="http://www.w3.org/2001/XMLSchema-instance" xsi:noNamespaceSchemaLocation="http://sumo.dlr.de/xsd/neteditConfiguration.xsd">

    <input>
        <sumo-net-file value="/home/tae/Tae_ws/P__Autonomous_driving_of_intersection_situations_using_Ubuntu_ROS2_SUMO_Rviz2/self_study_sumo/sumo_xml_cfg/around_hwawon_station_in_daegu.net.xml"/>
    </input>

    <output>
        <output-file value="/home/tae/Tae_ws/P__Autonomous_driving_of_intersection_situations_using_Ubuntu_ROS2_SUMO_Rviz2/self_study_sumo/sumo_xml_cfg/around_hwawon_station_in_daegu.net.xml"/>
    </output>

    <processing>
        <offset.disable-normalization value="true"/>
    </processing>

    <junctions>
        <no-turnarounds value="true"/>
    </junctions>

    <netedit>
        <new-network value="false"/>
    </netedit>

</neteditConfiguration>
-->

<net version="1.20" junctionCornerDetail="5" limitTurnSpeed="5.50" xmlns:xsi="http://www.w3.org/2001/XMLSchema-instance" xsi:noNamespaceSchemaLocation="http://sumo.dlr.de/xsd/net_file.xsd">

    <location netOffset="0.00,0.00" convBoundary="-235.09,-226.99,232.13,181.31" origBoundary="10000000000.00,10000000000.00,-10000000000.00,-10000000000.00" projParameter="!"/>

    <edge id=":J1_0" function="internal">
        <lane id=":J1_0_0" index="0" speed="6.53" length="8.96" shape="-174.76,-11.44 -172.36,-11.03 -170.39,-11.50 -168.85,-12.83 -167.73,-15.02"/>
    </edge>
    <edge id=":J1_1" function="internal">
        <lane id=":J1_1_0" index="0" speed="13.89" length="11.15" shape="-174.76,-11.44 -171.76,-10.48 -169.45,-9.72 -167.19,-8.84 -164.32,-7.55"/>
    </edge>
    <edge id=":J10_0" function="internal">
        <lane id=":J10_0_0" index="0" speed="5.57" length="9.38" shape="152.68,-67.06 155.24,-65.73 157.04,-65.80 158.09,-67.27 158.38,-70.14"/>
    </edge>
    <edge id=":J10_1" function="internal">
        <lane id=":J10_1_0" index="0" speed="13.89" length="18.62" shape="152.68,-67.06 156.18,-64.54 160.15,-61.51 164.04,-58.37 167.29,-55.54"/>
    </edge>
    <edge id=":J10_2" function="internal">
        <lane id=":J10_2_0" index="0" speed="11.31" length="17.14" shape="152.68,-67.06 156.67,-63.80 159.47,-60.41 161.06,-56.87 161.44,-53.18"/>
    </edge>
    <edge id=":J11_0" function="internal">
        <lane id=":J11_0_0" index="0" speed="13.89" length="11.69" shape="157.43,15.03 157.25,18.27 157.01,20.88 156.49,23.42 155.46,26.48"/>
    </edge>
    <edge id=":J11_1" function="internal">
        <lane id=":J11_1_0" index="0" speed="6.36" length="4.32" shape="151.34,19.57 153.93,20.55 155.05,21.62"/>
    </edge>
    <edge id=":J11_2" function="internal">
        <lane id=":J11_2_0" index="0" speed="6.36" length="5.16" shape="155.05,21.62 155.48,22.03 155.99,24.00 155.46,26.48"/>
    </edge>
    <edge id=":J12_0" function="internal">
        <lane id=":J12_0_0" index="0" speed="6.16" length="9.05" shape="55.27,-9.02 54.60,-6.57 54.94,-4.62 56.30,-3.18 58.67,-2.24"/>
    </edge>
    <edge id=":J12_1" function="internal">
        <lane id=":J12_1_0" index="0" speed="13.89" length="11.76" shape="55.27,-9.02 50.74,1.83"/>
    </edge>
    <edge id=":J13_0" function="internal">
        <lane id=":J13_0_0" index="0" speed="13.89" length="15.32" shape="132.91,-169.53 126.67,-183.51"/>
    </edge>
    <edge id=":J13_1" function="internal">
        <lane id=":J13_1_0" index="0" speed="7.87" length="7.69" shape="132.91,-169.53 131.84,-172.93 131.77,-175.83 132.20,-176.96"/>
    </edge>
    <edge id=":J13_6" function="internal">
        <lane id=":J13_6_0" index="0" speed="7.87" length="4.05" shape="132.20,-176.96 132.69,-178.23 134.62,-180.11"/>
    </edge>
    <edge id=":J13_2" function="internal">
        <lane id=":J13_2_0" index="0" speed="5.84" length="9.13" shape="122.97,-177.41 125.59,-177.91 127.07,-179.10 127.43,-180.97 126.67,-183.51"/>
    </edge>
    <edge id=":J13_3" function="internal">
        <lane id=":J13_3_0" index="0" speed="13.89" length="12.16" shape="122.97,-177.41 126.32,-177.55 129.11,-177.81 131.75,-178.55 134.62,-180.11"/>
    </edge>
    <edge id=":J13_4" function="internal">
        <lane id=":J13_4_0" index="0" speed="11.24" length="14.26" shape="126.61,-169.75 127.88,-173.06 128.31,-176.47 127.91,-179.95 126.67,-183.51"/>
    </edge>
    <edge id=":J13_5" function="internal">
        <lane id=":J13_5_0" index="0" speed="13.89" length="13.27" shape="126.61,-169.75 128.24,-172.85 129.92,-175.55 131.94,-177.94 134.62,-180.11"/>
    </edge>
    <edge id=":J17_0" function="internal">
        <lane id=":J17_0_0" index="0" speed="5.88" length="9.11" shape="-86.32,-206.15 -87.12,-208.68 -88.47,-210.03 -90.37,-210.21 -92.83,-209.23"/>
    </edge>
    <edge id=":J17_1" function="internal">
        <lane id=":J17_1_0" index="0" speed="13.89" length="13.11" shape="-86.32,-206.15 -86.91,-209.58 -87.31,-212.68 -87.35,-215.76 -86.84,-219.16"/>
    </edge>
    <edge id=":J18_0" function="internal">
        <lane id=":J18_0_0" index="0" speed="6.42" length="9.04" shape="-210.91,-141.33 -212.87,-139.79 -213.84,-138.01 -213.82,-135.98 -212.81,-133.71"/>
    </edge>
    <edge id=":J18_1" function="internal">
        <lane id=":J18_1_0" index="0" speed="13.89" length="14.75" shape="-210.91,-141.33 -214.16,-139.53 -217.44,-137.89 -220.77,-136.37 -224.21,-134.97"/>
    </edge>
    <edge id=":J18_2" function="internal">
        <lane id=":J18_2_0" index="0" speed="7.20" length="11.97" shape="-210.91,-141.33 -214.51,-139.69 -217.44,-139.29 -219.72,-140.13 -221.33,-142.20"/>
    </edge>
    <edge id=":J2_0" function="internal">
        <lane id=":J2_0_0" index="0" speed="6.65" length="8.53" shape="22.83,74.25 22.26,76.56 22.47,78.55 23.46,80.21 25.22,81.55"/>
    </edge>
    <edge id=":J2_1" function="internal">
        <lane id=":J2_1_0" index="0" speed="13.89" length="10.12" shape="16.22,76.90 25.22,81.55"/>
    </edge>
    <edge id=":J3_0" function="internal">
        <lane id=":J3_0_0" index="0" speed="6.54" length="8.95" shape="117.12,125.37 116.55,127.77 116.86,129.79 118.06,131.42 120.13,132.66"/>
    </edge>
    <edge id=":J3_1" function="internal">
        <lane id=":J3_1_0" index="0" speed="13.89" length="11.15" shape="110.03,127.96 112.81,129.43 115.00,130.48 117.23,131.45 120.13,132.66"/>
    </edge>
    <edge id=":J4_0" function="internal">
        <lane id=":J4_0_0" index="0" speed="6.40" length="9.04" shape="142.61,135.93 141.87,138.31 142.08,140.32 143.26,141.97 145.40,143.25"/>
    </edge>
    <edge id=":J4_1" function="internal">
        <lane id=":J4_1_0" index="0" speed="13.89" length="11.20" shape="135.07,138.92 145.40,143.25"/>
    </edge>
    <edge id=":J6_0" function="internal">
        <lane id=":J6_0_0" index="0" speed="6.97" length="7.91" shape="-148.26,-83.84 -146.20,-82.83 -144.29,-82.47 -142.52,-82.77 -140.89,-83.72"/>
    </edge>
    <edge id=":J6_1" function="internal">
        <lane id=":J6_1_0" index="0" speed="13.10" length="8.85" shape="-146.34,-77.00 -145.37,-79.39 -144.34,-80.87 -142.96,-82.09 -140.89,-83.72"/>
    </edge>
    <edge id=":J7_0" function="internal">
        <lane id=":J7_0_0" index="0" speed="7.45" length="7.33" shape="-77.34,-135.72 -76.29,-136.92 -75.65,-138.45 -75.43,-140.31 -75.62,-142.51"/>
    </edge>
    <edge id=":J7_1" function="internal">
        <lane id=":J7_1_0" index="0" speed="13.89" length="7.92" shape="-77.34,-135.72 -75.52,-137.21 -74.23,-138.19 -72.88,-139.06 -70.85,-140.24"/>
    </edge>
    <edge id=":J8_0" function="internal">
        <lane id=":J8_0_0" index="0" speed="6.67" length="8.86" shape="-24.06,-166.68 -22.27,-168.10 -21.31,-169.84 -21.19,-171.91 -21.92,-174.31"/>
    </edge>
    <edge id=":J8_1" function="internal">
        <lane id=":J8_1_0" index="0" speed="13.89" length="16.60" shape="-24.06,-166.68 -20.43,-168.29 -16.30,-169.47 -12.05,-170.23 -8.05,-170.61"/>
    </edge>
    <edge id=":J8_2" function="internal">
        <lane id=":J8_2_0" index="0" speed="10.78" length="15.57" shape="-24.06,-166.68 -20.70,-167.99 -17.11,-168.25 -13.28,-167.47 -9.22,-165.64"/>
    </edge>
    <edge id=":J9_0" function="internal">
        <lane id=":J9_0_0" index="0" speed="6.42" length="9.03" shape="89.47,-109.94 91.79,-109.04 93.81,-109.12 95.55,-110.17 96.99,-112.20"/>
    </edge>
    <edge id=":J9_1" function="internal">
        <lane id=":J9_1_0" index="0" speed="13.89" length="14.72" shape="89.47,-109.94 92.67,-108.09 95.80,-106.18 98.87,-104.21 101.94,-102.14"/>
    </edge>
    <edge id=":J9_2" function="internal">
        <lane id=":J9_2_0" index="0" speed="7.81" length="12.38" shape="89.47,-109.94 92.66,-107.71 94.59,-105.32 95.27,-102.77 94.69,-100.06"/>
    </edge>

    <edge id="E0" from="J0" to="J1" priority="-1">
        <lane id="E0_0" index="0" speed="13.89" length="61.40" shape="-233.22,-30.20 -174.76,-11.44"/>
    </edge>
    <edge id="E1" from="J1" to="J2" priority="-1">
        <lane id="E1_0" index="0" speed="13.89" length="199.32" shape="-164.32,-7.55 16.22,76.90"/>
    </edge>
    <edge id="E10" from="J10" to="J11" priority="-1">
        <lane id="E10_0" index="0" speed="13.89" length="68.33" shape="161.44,-53.18 157.43,15.03"/>
    </edge>
    <edge id="E11" from="J11" to="J3" priority="-1">
        <lane id="E11_0" index="0" speed="13.89" length="106.06" shape="155.46,26.48 117.12,125.37"/>
    </edge>
    <edge id="E12" from="J9" to="J12" priority="-1">
        <lane id="E12_0" index="0" speed="13.89" length="99.20" shape="94.69,-100.06 55.27,-9.02"/>
    </edge>
    <edge id="E13" from="J12" to="J2" priority="-1">
        <lane id="E13_0" index="0" speed="13.89" length="77.61" shape="50.74,1.83 22.83,74.25"/>
    </edge>
    <edge id="E14" from="J12" to="J11" priority="-1">
        <lane id="E14_0" index="0" speed="13.89" length="95.20" shape="58.67,-2.24 151.34,19.57"/>
    </edge>
    <edge id="E15" from="J10" to="J13" priority="-1" shape="160.23,-59.89 158.92,-112.96 131.76,-176.26">
        <lane id="E15_0" index="0" speed="13.89" length="104.42" shape="158.38,-70.14 157.33,-112.61 132.91,-169.53"/>
    </edge>
    <edge id="E16" from="J13" to="J14" priority="-1">
        <lane id="E16_0" index="0" speed="13.89" length="46.94" shape="126.67,-183.51 107.10,-226.18"/>
    </edge>
    <edge id="E17" from="J9" to="J13" priority="-1">
        <lane id="E17_0" index="0" speed="13.89" length="64.72" shape="96.99,-112.20 126.61,-169.75"/>
    </edge>
    <edge id="E18" from="J13" to="J15" priority="-1">
        <lane id="E18_0" index="0" speed="13.89" length="83.04" shape="134.62,-180.11 203.51,-226.48"/>
    </edge>
    <edge id="E19" from="J8" to="J16" priority="-1">
        <lane id="E19_0" index="0" speed="13.89" length="56.76" shape="-21.92,-174.31 -45.10,-226.13"/>
    </edge>
    <edge id="E2" from="J2" to="J3" priority="-1">
        <lane id="E2_0" index="0" speed="13.89" length="96.68" shape="25.22,81.55 110.03,127.96"/>
    </edge>
    <edge id="E20" from="J7" to="J17" priority="-1">
        <lane id="E20_0" index="0" speed="13.89" length="64.54" shape="-75.62,-142.51 -86.32,-206.15"/>
    </edge>
    <edge id="E21" from="J17" to="J18" priority="-1">
        <lane id="E21_0" index="0" speed="13.89" length="136.21" shape="-92.83,-209.23 -210.91,-141.33"/>
    </edge>
    <edge id="E22" from="J18" to="J6" priority="-1" shape="-218.06,-139.06 -204.36,-117.24 -143.89,-79.20">
        <lane id="E22_0" index="0" speed="13.89" length="82.98" shape="-212.81,-133.71 -203.20,-118.40 -148.26,-83.84"/>
    </edge>
    <edge id="E23" from="J18" to="J19" priority="-1">
        <lane id="E23_0" index="0" speed="13.89" length="35.33" shape="-221.33,-142.20 -236.53,-174.09"/>
    </edge>
    <edge id="E24" from="J18" to="J20" priority="-1">
        <lane id="E24_0" index="0" speed="13.89" length="11.05" shape="-224.21,-134.97 -234.51,-130.98"/>
    </edge>
    <edge id="E25" from="J17" to="J21" priority="-1">
        <lane id="E25_0" index="0" speed="13.89" length="8.40" shape="-86.84,-219.16 -84.98,-227.34"/>
    </edge>
    <edge id="E26" from="J8" to="J13" priority="-1">
        <lane id="E26_0" index="0" speed="13.89" length="131.20" shape="-8.05,-170.61 122.97,-177.41"/>
    </edge>
    <edge id="E27" from="J10" to="J4" priority="-1" shape="160.23,-59.89 211.75,-12.31 137.99,141.88">
        <lane id="E27_0" index="0" speed="13.89" length="227.91" shape="167.29,-55.54 213.70,-12.68 142.61,135.93"/>
    </edge>
    <edge id="E3" from="J3" to="J4" priority="-1">
        <lane id="E3_0" index="0" speed="13.89" length="16.19" shape="120.13,132.66 135.07,138.92"/>
    </edge>
    <edge id="E4" from="J4" to="J5" priority="-1">
        <lane id="E4_0" index="0" speed="13.89" length="94.70" shape="145.40,143.25 232.75,179.83"/>
    </edge>
    <edge id="E5" from="J1" to="J6" priority="-1">
        <lane id="E5_0" index="0" speed="13.89" length="65.56" shape="-167.73,-15.02 -146.34,-77.00"/>
    </edge>
    <edge id="E6" from="J6" to="J7" priority="-1">
        <lane id="E6_0" index="0" speed="13.89" length="82.12" shape="-140.89,-83.72 -77.34,-135.72"/>
    </edge>
    <edge id="E7" from="J7" to="J8" priority="-1">
        <lane id="E7_0" index="0" speed="13.89" length="53.74" shape="-70.85,-140.24 -24.06,-166.68"/>
    </edge>
    <edge id="E8" from="J8" to="J9" priority="-1">
        <lane id="E8_0" index="0" speed="13.89" length="113.32" shape="-9.22,-165.64 89.47,-109.94"/>
    </edge>
    <edge id="E9" from="J9" to="J10" priority="-1">
        <lane id="E9_0" index="0" speed="13.89" length="61.68" shape="101.94,-102.14 152.68,-67.06"/>
    </edge>

    <junction id="J0" type="dead_end" x="-233.71" y="-28.68" incLanes="" intLanes="" shape="-233.71,-28.68 -232.73,-31.73"/>
    <junction id="J1" type="priority" x="-168.54" y="-7.76" incLanes="E0_0" intLanes=":J1_0_0 :J1_1_0" shape="-164.99,-6.10 -163.64,-9.00 -165.64,-10.41 -166.21,-11.28 -166.49,-12.25 -166.50,-13.32 -166.21,-14.50 -169.24,-15.55 -170.38,-13.58 -171.15,-13.01 -172.06,-12.72 -173.10,-12.70 -174.27,-12.96 -175.25,-9.91 -173.02,-9.21 -171.38,-8.70 -170.03,-8.25 -168.70,-7.75 -167.11,-7.07">
        <request index="0" response="00" foes="00" cont="0"/>
        <request index="1" response="00" foes="00" cont="0"/>
    </junction>
    <junction id="J10" type="priority" x="160.23" y="-59.89" incLanes="E9_0" intLanes=":J10_0_0 :J10_1_0 :J10_2_0" shape="166.21,-54.37 168.38,-56.72 165.85,-59.21 163.78,-61.60 162.15,-63.90 160.97,-66.09 160.25,-68.18 159.98,-70.18 156.78,-70.10 156.47,-68.13 156.03,-67.67 155.40,-67.55 154.59,-67.79 153.59,-68.37 151.77,-65.74 154.34,-63.77 156.42,-61.76 158.02,-59.70 159.12,-57.60 159.73,-55.46 159.84,-53.28 163.04,-53.09 163.49,-55.01 163.95,-55.41 164.55,-55.43 165.30,-55.09">
        <request index="0" response="000" foes="000" cont="0"/>
        <request index="1" response="000" foes="000" cont="0"/>
        <request index="2" response="000" foes="000" cont="0"/>
    </junction>
    <junction id="J11" type="priority" x="155.41" y="22.17" incLanes="E10_0 E14_0" intLanes=":J11_0_0 :J11_2_0" shape="159.03,15.12 155.84,14.93 155.27,17.05 154.69,17.70 153.90,18.08 152.90,18.18 151.71,18.01 150.97,21.13 153.28,22.12 153.94,22.84 154.27,23.71 154.28,24.73 153.96,25.90 156.95,27.06 157.84,24.63 158.38,22.80 158.68,21.24 158.82,19.65 158.90,17.71">
        <request index="0" response="00" foes="10" cont="0"/>
        <request index="1" response="01" foes="01" cont="1"/>
    </junction>
    <junction id="J12" type="priority" x="50.69" y="-2.48" incLanes="E12_0" intLanes=":J12_0_0 :J12_1_0" shape="58.31,-0.69 59.04,-3.80 57.05,-4.72 56.52,-5.41 56.29,-6.25 56.36,-7.24 56.74,-8.39 53.80,-9.66 49.25,1.25 52.24,2.40 53.62,0.22 54.55,-0.44 55.64,-0.81 56.90,-0.89">
        <request index="0" response="00" foes="00" cont="0"/>
        <request index="1" response="00" foes="00" cont="0"/>
    </junction>
    <junction id="J13" type="priority" x="131.76" y="-176.26" incLanes="E15_0 E26_0 E17_0" intLanes=":J13_0_0 :J13_6_0 :J13_2_0 :J13_3_0 :J13_4_0 :J13_5_0" shape="131.44,-168.89 134.38,-170.16 133.68,-172.09 133.34,-173.83 133.35,-175.37 133.72,-176.70 134.44,-177.84 135.51,-178.79 133.73,-181.44 131.63,-180.75 130.67,-181.01 129.76,-181.67 128.92,-182.72 128.13,-184.18 125.22,-182.85 125.70,-180.80 125.47,-180.07 124.92,-179.52 124.06,-179.17 122.89,-179.00 123.06,-175.81 125.52,-175.33 126.09,-174.61 126.23,-173.55 125.93,-172.18 125.19,-170.48 128.03,-169.01 129.22,-170.58 129.80,-170.76 130.36,-170.54 130.91,-169.92">
        <request index="0" response="001100" foes="111100" cont="0"/>
        <request index="1" response="001000" foes="101000" cont="1"/>
        <request index="2" response="000000" foes="010001" cont="0"/>
        <request index="3" response="000000" foes="110011" cont="0"/>
        <request index="4" response="001101" foes="001101" cont="0"/>
        <request index="5" response="001011" foes="001011" cont="0"/>
    </junction>
    <junction id="J14" type="dead_end" x="108.55" y="-226.85" incLanes="E16_0" intLanes="" shape="105.64,-225.52 108.55,-226.85"/>
    <junction id="J15" type="dead_end" x="204.40" y="-225.15" incLanes="E18_0" intLanes="" shape="202.61,-227.80 204.40,-225.15"/>
    <junction id="J16" type="dead_end" x="-43.64" y="-226.78" incLanes="E19_0" intLanes="" shape="-46.56,-225.47 -43.64,-226.78"/>
    <junction id="J17" type="priority" x="-86.17" y="-214.90" incLanes="E20_0" intLanes=":J17_0_0 :J17_1_0" shape="-87.90,-205.89 -84.74,-206.42 -85.24,-209.04 -85.65,-211.00 -85.91,-212.64 -85.98,-214.26 -85.79,-216.21 -85.28,-218.80 -88.40,-219.51 -88.98,-217.38 -89.67,-215.51 -90.48,-213.90 -91.41,-212.54 -92.46,-211.45 -93.63,-210.61 -92.03,-207.84 -90.03,-208.51 -89.26,-208.35 -88.65,-207.86 -88.20,-207.04">
        <request index="0" response="00" foes="00" cont="0"/>
        <request index="1" response="00" foes="00" cont="0"/>
    </junction>
    <junction id="J18" type="priority" x="-218.06" y="-139.06" incLanes="E21_0" intLanes=":J18_0_0 :J18_1_0 :J18_2_0" shape="-214.16,-132.86 -211.45,-134.56 -212.25,-136.66 -212.18,-137.60 -211.80,-138.45 -211.11,-139.23 -210.11,-139.94 -211.71,-142.71 -213.70,-141.70 -215.44,-141.11 -216.93,-140.93 -218.17,-141.17 -219.15,-141.82 -219.89,-142.89 -222.77,-141.51 -222.23,-139.35 -222.42,-138.44 -222.90,-137.66 -223.69,-137.00 -224.78,-136.46 -223.63,-133.47 -221.34,-134.24 -219.33,-134.66 -217.61,-134.73 -216.18,-134.45 -215.03,-133.83">
        <request index="0" response="000" foes="000" cont="0"/>
        <request index="1" response="000" foes="000" cont="0"/>
        <request index="2" response="000" foes="000" cont="0"/>
    </junction>
    <junction id="J19" type="dead_end" x="-235.09" y="-174.78" incLanes="E23_0" intLanes="" shape="-237.98,-173.40 -235.09,-174.78"/>
    <junction id="J2" type="priority" x="18.92" y="79.93" incLanes="E13_0 E1_0" intLanes=":J2_0_0 :J2_1_0" shape="24.45,82.96 25.99,80.15 24.43,78.81 24.03,77.98 23.88,77.03 23.98,75.98 24.32,74.82 21.33,73.67 20.28,75.32 19.60,75.75 18.80,75.91 17.91,75.82 16.90,75.45 15.55,78.35">
        <request index="0" response="00" foes="10" cont="0"/>
        <request index="1" response="01" foes="01" cont="0"/>
    </junction>
    <junction id="J20" type="dead_end" x="-235.09" y="-132.47" incLanes="E24_0" intLanes="" shape="-233.94,-129.49 -235.09,-132.47"/>
    <junction id="J21" type="dead_end" x="-83.42" y="-226.99" incLanes="E25_0" intLanes="" shape="-86.54,-227.70 -83.42,-226.99"/>
    <junction id="J3" type="priority" x="113.05" y="131.43" incLanes="E11_0 E2_0" intLanes=":J3_0_0 :J3_1_0" shape="119.51,134.14 120.75,131.19 118.92,129.94 118.42,129.12 118.20,128.19 118.27,127.13 118.61,125.95 115.62,124.79 114.46,126.60 113.71,127.05 112.85,127.19 111.88,127.02 110.80,126.55 109.26,129.36 111.38,130.50 112.97,131.32 114.29,131.95 115.64,132.53">
        <request index="0" response="00" foes="10" cont="0"/>
        <request index="1" response="01" foes="01" cont="0"/>
    </junction>
    <junction id="J4" type="priority" x="137.99" y="141.88" incLanes="E27_0 E3_0" intLanes=":J4_0_0 :J4_1_0" shape="144.78,144.72 146.02,141.77 144.16,140.51 143.68,139.71 143.50,138.80 143.63,137.76 144.05,136.62 141.17,135.24 139.76,137.15 138.90,137.67 137.93,137.89 136.86,137.81 135.68,137.44 134.45,140.40">
        <request index="0" response="00" foes="10" cont="0"/>
        <request index="1" response="01" foes="01" cont="0"/>
    </junction>
    <junction id="J5" type="dead_end" x="232.13" y="181.31" incLanes="E4_0" intLanes="" shape="233.37,178.36 232.13,181.31"/>
    <junction id="J6" type="priority" x="-143.89" y="-79.20" incLanes="E22_0 E5_0" intLanes=":J6_0_0 :J6_1_0" shape="-139.88,-82.48 -141.91,-84.96 -143.51,-84.17 -144.40,-84.10 -145.34,-84.25 -146.34,-84.61 -147.40,-85.19 -149.11,-82.48 -147.89,-81.25 -147.58,-80.48 -147.47,-79.60 -147.56,-78.61 -147.85,-77.52 -144.83,-76.48 -143.65,-79.12 -143.01,-79.93 -142.22,-80.65 -141.20,-81.44">
        <request index="0" response="00" foes="10" cont="0"/>
        <request index="1" response="01" foes="01" cont="0"/>
    </junction>
    <junction id="J7" type="priority" x="-73.09" y="-137.13" incLanes="E6_0" intLanes=":J7_0_0 :J7_1_0" shape="-70.06,-138.84 -71.63,-141.63 -72.80,-141.25 -73.25,-141.34 -73.60,-141.63 -73.87,-142.11 -74.04,-142.78 -77.20,-142.25 -77.04,-139.96 -77.16,-139.02 -77.42,-138.20 -77.82,-137.52 -78.35,-136.96 -76.32,-134.48 -74.13,-136.27 -73.33,-136.87 -72.50,-137.42 -71.47,-138.04">
        <request index="0" response="00" foes="00" cont="0"/>
        <request index="1" response="00" foes="00" cont="0"/>
    </junction>
    <junction id="J8" type="priority" x="-17.57" y="-168.51" incLanes="E7_0" intLanes=":J8_0_0 :J8_1_0 :J8_2_0" shape="-10.01,-164.24 -8.44,-167.03 -7.97,-169.01 -8.14,-172.20 -11.49,-172.12 -14.32,-172.26 -16.63,-172.61 -18.43,-173.18 -19.70,-173.97 -20.46,-174.97 -23.38,-173.66 -22.79,-171.35 -22.90,-170.36 -23.28,-169.49 -23.93,-168.72 -24.85,-168.07 -23.28,-165.28 -21.32,-166.15 -19.27,-166.60 -17.11,-166.64 -14.84,-166.26 -12.48,-165.46">
        <request index="0" response="000" foes="000" cont="0"/>
        <request index="1" response="000" foes="000" cont="0"/>
        <request index="2" response="000" foes="000" cont="0"/>
    </junction>
    <junction id="J9" type="priority" x="95.06" y="-104.95" incLanes="E8_0" intLanes=":J9_0_0 :J9_1_0 :J9_2_0" shape="101.03,-100.82 102.85,-103.45 100.98,-104.89 99.55,-106.28 98.58,-107.64 98.07,-108.95 98.01,-110.23 98.41,-111.46 95.57,-112.93 94.16,-111.17 93.32,-110.75 92.39,-110.64 91.37,-110.84 90.25,-111.34 88.68,-108.55 90.58,-107.33 92.02,-106.08 93.00,-104.79 93.53,-103.46 93.60,-102.10 93.22,-100.70 96.15,-99.42 97.40,-101.21 98.17,-101.61 99.03,-101.68 99.98,-101.41">
        <request index="0" response="000" foes="000" cont="0"/>
        <request index="1" response="000" foes="000" cont="0"/>
        <request index="2" response="000" foes="000" cont="0"/>
    </junction>

    <junction id=":J11_2_0" type="internal" x="155.05" y="21.62" incLanes=":J11_1_0 E10_0" intLanes=":J11_0_0"/>
    <junction id=":J13_6_0" type="internal" x="132.20" y="-176.96" incLanes=":J13_1_0 E26_0" intLanes=":J13_3_0 :J13_5_0"/>

    <connection from="E0" to="E5" fromLane="0" toLane="0" via=":J1_0_0" dir="r" state="M"/>
    <connection from="E0" to="E1" fromLane="0" toLane="0" via=":J1_1_0" dir="s" state="M"/>
    <connection from="E1" to="E2" fromLane="0" toLane="0" via=":J2_1_0" dir="s" state="m"/>
    <connection from="E10" to="E11" fromLane="0" toLane="0" via=":J11_0_0" dir="s" state="M"/>
    <connection from="E11" to="E3" fromLane="0" toLane="0" via=":J3_0_0" dir="r" state="M"/>
    <connection from="E12" to="E14" fromLane="0" toLane="0" via=":J12_0_0" dir="r" state="M"/>
    <connection from="E12" to="E13" fromLane="0" toLane="0" via=":J12_1_0" dir="s" state="M"/>
    <connection from="E13" to="E2" fromLane="0" toLane="0" via=":J2_0_0" dir="r" state="M"/>
    <connection from="E14" to="E11" fromLane="0" toLane="0" via=":J11_1_0" dir="l" state="m"/>
    <connection from="E15" to="E16" fromLane="0" toLane="0" via=":J13_0_0" dir="s" state="m"/>
    <connection from="E15" to="E18" fromLane="0" toLane="0" via=":J13_1_0" dir="l" state="m"/>
    <connection from="E17" to="E16" fromLane="0" toLane="0" via=":J13_4_0" dir="r" state="m"/>
    <connection from="E17" to="E18" fromLane="0" toLane="0" via=":J13_5_0" dir="s" state="m"/>
    <connection from="E2" to="E3" fromLane="0" toLane="0" via=":J3_1_0" dir="s" state="m"/>
    <connection from="E20" to="E21" fromLane="0" toLane="0" via=":J17_0_0" dir="r" state="M"/>
    <connection from="E20" to="E25" fromLane="0" toLane="0" via=":J17_1_0" dir="s" state="M"/>
    <connection from="E21" to="E22" fromLane="0" toLane="0" via=":J18_0_0" dir="r" state="M"/>
    <connection from="E21" to="E24" fromLane="0" toLane="0" via=":J18_1_0" dir="s" state="M"/>
    <connection from="E21" to="E23" fromLane="0" toLane="0" via=":J18_2_0" dir="l" state="M"/>
    <connection from="E22" to="E6" fromLane="0" toLane="0" via=":J6_0_0" dir="r" state="M"/>
    <connection from="E26" to="E16" fromLane="0" toLane="0" via=":J13_2_0" dir="r" state="M"/>
    <connection from="E26" to="E18" fromLane="0" toLane="0" via=":J13_3_0" dir="s" state="M"/>
    <connection from="E27" to="E4" fromLane="0" toLane="0" via=":J4_0_0" dir="r" state="M"/>
    <connection from="E3" to="E4" fromLane="0" toLane="0" via=":J4_1_0" dir="s" state="m"/>
    <connection from="E5" to="E6" fromLane="0" toLane="0" via=":J6_1_0" dir="s" state="m"/>
    <connection from="E6" to="E20" fromLane="0" toLane="0" via=":J7_0_0" dir="r" state="M"/>
    <connection from="E6" to="E7" fromLane="0" toLane="0" via=":J7_1_0" dir="s" state="M"/>
    <connection from="E7" to="E19" fromLane="0" toLane="0" via=":J8_0_0" dir="r" state="M"/>
    <connection from="E7" to="E26" fromLane="0" toLane="0" via=":J8_1_0" dir="s" state="M"/>
    <connection from="E7" to="E8" fromLane="0" toLane="0" via=":J8_2_0" dir="l" state="M"/>
    <connection from="E8" to="E17" fromLane="0" toLane="0" via=":J9_0_0" dir="r" state="M"/>
    <connection from="E8" to="E9" fromLane="0" toLane="0" via=":J9_1_0" dir="s" state="M"/>
    <connection from="E8" to="E12" fromLane="0" toLane="0" via=":J9_2_0" dir="l" state="M"/>
    <connection from="E9" to="E15" fromLane="0" toLane="0" via=":J10_0_0" dir="r" state="M"/>
    <connection from="E9" to="E27" fromLane="0" toLane="0" via=":J10_1_0" dir="s" state="M"/>
    <connection from="E9" to="E10" fromLane="0" toLane="0" via=":J10_2_0" dir="l" state="M"/>

    <connection from=":J1_0" to="E5" fromLane="0" toLane="0" dir="r" state="M"/>
    <connection from=":J1_1" to="E1" fromLane="0" toLane="0" dir="s" state="M"/>
    <connection from=":J10_0" to="E15" fromLane="0" toLane="0" dir="r" state="M"/>
    <connection from=":J10_1" to="E27" fromLane="0" toLane="0" dir="s" state="M"/>
    <connection from=":J10_2" to="E10" fromLane="0" toLane="0" dir="l" state="M"/>
    <connection from=":J11_0" to="E11" fromLane="0" toLane="0" dir="s" state="M"/>
    <connection from=":J11_1" to="E11" fromLane="0" toLane="0" via=":J11_2_0" dir="l" state="m"/>
    <connection from=":J11_2" to="E11" fromLane="0" toLane="0" dir="l" state="M"/>
    <connection from=":J12_0" to="E14" fromLane="0" toLane="0" dir="r" state="M"/>
    <connection from=":J12_1" to="E13" fromLane="0" toLane="0" dir="s" state="M"/>
    <connection from=":J13_0" to="E16" fromLane="0" toLane="0" dir="s" state="M"/>
    <connection from=":J13_1" to="E18" fromLane="0" toLane="0" via=":J13_6_0" dir="l" state="m"/>
    <connection from=":J13_6" to="E18" fromLane="0" toLane="0" dir="l" state="M"/>
    <connection from=":J13_2" to="E16" fromLane="0" toLane="0" dir="r" state="M"/>
    <connection from=":J13_3" to="E18" fromLane="0" toLane="0" dir="s" state="M"/>
    <connection from=":J13_4" to="E16" fromLane="0" toLane="0" dir="r" state="M"/>
    <connection from=":J13_5" to="E18" fromLane="0" toLane="0" dir="s" state="M"/>
    <connection from=":J17_0" to="E21" fromLane="0" toLane="0" dir="r" state="M"/>
    <connection from=":J17_1" to="E25" fromLane="0" toLane="0" dir="s" state="M"/>
    <connection from=":J18_0" to="E22" fromLane="0" toLane="0" dir="r" state="M"/>
    <connection from=":J18_1" to="E24" fromLane="0" toLane="0" dir="s" state="M"/>
    <connection from=":J18_2" to="E23" fromLane="0" toLane="0" dir="l" state="M"/>
    <connection from=":J2_0" to="E2" fromLane="0" toLane="0" dir="r" state="M"/>
    <connection from=":J2_1" to="E2" fromLane="0" toLane="0" dir="s" state="M"/>
    <connection from=":J3_0" to="E3" fromLane="0" toLane="0" dir="r" state="M"/>
    <connection from=":J3_1" to="E3" fromLane="0" toLane="0" dir="s" state="M"/>
    <connection from=":J4_0" to="E4" fromLane="0" toLane="0" dir="r" state="M"/>
    <connection from=":J4_1" to="E4" fromLane="0" toLane="0" dir="s" state="M"/>
    <connection from=":J6_0" to="E6" fromLane="0" toLane="0" dir="r" state="M"/>
    <connection from=":J6_1" to="E6" fromLane="0" toLane="0" dir="s" state="M"/>
    <connection from=":J7_0" to="E20" fromLane="0" toLane="0" dir="r" state="M"/>
    <connection from=":J7_1" to="E7" fromLane="0" toLane="0" dir="s" state="M"/>
    <connection from=":J8_0" to="E19" fromLane="0" toLane="0" dir="r" state="M"/>
    <connection from=":J8_1" to="E26" fromLane="0" toLane="0" dir="s" state="M"/>
    <connection from=":J8_2" to="E8" fromLane="0" toLane="0" dir="l" state="M"/>
    <connection from=":J9_0" to="E17" fromLane="0" toLane="0" dir="r" state="M"/>
    <connection from=":J9_1" to="E9" fromLane="0" toLane="0" dir="s" state="M"/>
    <connection from=":J9_2" to="E12" fromLane="0" toLane="0" dir="l" state="M"/>

</net>
